New Load.load_p1rlv10789_1 conn=wye bus1=p1rlv10789.1 kV=0.12 Vminpu=0.8 Vmaxpu=1.2 model=1 kW=4.095937077188644 kvar=0.9158391685680531 Phases=1 !yearly=res_kw_13252_pu

New Load.load_p1rlv10789_2 conn=wye bus1=p1rlv10789.2 kV=0.12 Vminpu=0.8 Vmaxpu=1.2 model=1 kW=4.095937077188644 kvar=0.9158391685680531 Phases=1 !yearly=res_kw_13252_pu

New Load.load_p1rlv10838_1 conn=wye bus1=p1rlv10838.1 kV=0.12 Vminpu=0.8 Vmaxpu=1.2 model=1 kW=4.665542493664037 kvar=1.416706700170502 Phases=1 !yearly=res_kw_7810_pu

New Load.load_p1rlv10838_2 conn=wye bus1=p1rlv10838.2 kV=0.12 Vminpu=0.8 Vmaxpu=1.2 model=1 kW=4.665542493664037 kvar=1.416706700170502 Phases=1 !yearly=res_kw_7810_pu

New Load.load_p1rlv10842_1 conn=wye bus1=p1rlv10842.1 kV=0.12 Vminpu=0.8 Vmaxpu=1.2 model=1 kW=0.7055277650263714 kvar=0.24030088917661724 Phases=1 !yearly=res_kw_6768_pu

New Load.load_p1rlv10842_2 conn=wye bus1=p1rlv10842.2 kV=0.12 Vminpu=0.8 Vmaxpu=1.2 model=1 kW=0.7055277650263714 kvar=0.24030088917661724 Phases=1 !yearly=res_kw_6768_pu

New Load.load_p1rlv10870_1 conn=wye bus1=p1rlv10870.1 kV=0.12 Vminpu=0.8 Vmaxpu=1.2 model=1 kW=1.1427818095792333 kvar=0.5033588044558321 Phases=1 !yearly=res_kw_10152_pu

New Load.load_p1rlv10870_2 conn=wye bus1=p1rlv10870.2 kV=0.12 Vminpu=0.8 Vmaxpu=1.2 model=1 kW=1.1427818095792333 kvar=0.5033588044558321 Phases=1 !yearly=res_kw_10152_pu

New Load.load_p1rlv10875_1 conn=wye bus1=p1rlv10875.1 kV=0.12 Vminpu=0.8 Vmaxpu=1.2 model=1 kW=3.325875857998425 kvar=0.6487406534657105 Phases=1 !yearly=res_kw_7250_pu

New Load.load_p1rlv10875_2 conn=wye bus1=p1rlv10875.2 kV=0.12 Vminpu=0.8 Vmaxpu=1.2 model=1 kW=3.325875857998425 kvar=0.6487406534657105 Phases=1 !yearly=res_kw_7250_pu

New Load.load_p1rlv10906_1 conn=wye bus1=p1rlv10906.1 kV=0.12 Vminpu=0.8 Vmaxpu=1.2 model=1 kW=0.2601927423507288 kvar=0.13915962527089715 Phases=1 !yearly=res_kw_7511_pu

New Load.load_p1rlv10906_2 conn=wye bus1=p1rlv10906.2 kV=0.12 Vminpu=0.8 Vmaxpu=1.2 model=1 kW=0.2601927423507288 kvar=0.13915962527089715 Phases=1 !yearly=res_kw_7511_pu

New Load.load_p1rlv10962_1 conn=wye bus1=p1rlv10962.1 kV=0.12 Vminpu=0.8 Vmaxpu=1.2 model=1 kW=2.3792157437474204 kvar=0.7512505382175723 Phases=1 !yearly=com_kw_2251_pu

New Load.load_p1rlv10962_2 conn=wye bus1=p1rlv10962.2 kV=0.12 Vminpu=0.8 Vmaxpu=1.2 model=1 kW=2.3792157437474204 kvar=0.7512505382175723 Phases=1 !yearly=com_kw_2251_pu

New Load.load_p1rlv10967_1 conn=wye bus1=p1rlv10967.1 kV=0.12 Vminpu=0.8 Vmaxpu=1.2 model=1 kW=2.419059308693737 kvar=0.6911648224012601 Phases=1 !yearly=com_kw_17083_pu

New Load.load_p1rlv10967_2 conn=wye bus1=p1rlv10967.2 kV=0.12 Vminpu=0.8 Vmaxpu=1.2 model=1 kW=2.419059308693737 kvar=0.6911648224012601 Phases=1 !yearly=com_kw_17083_pu

New Load.load_p1rlv10991_1 conn=wye bus1=p1rlv10991.1 kV=0.12 Vminpu=0.8 Vmaxpu=1.2 model=1 kW=3.7463758536661063 kvar=1.1812611818115355 Phases=1 !yearly=res_kw_11478_pu

New Load.load_p1rlv10991_2 conn=wye bus1=p1rlv10991.2 kV=0.12 Vminpu=0.8 Vmaxpu=1.2 model=1 kW=3.7463758536661063 kvar=1.1812611818115355 Phases=1 !yearly=res_kw_11478_pu

New Load.load_p1rlv11001_1 conn=wye bus1=p1rlv11001.1 kV=0.12 Vminpu=0.8 Vmaxpu=1.2 model=1 kW=2.1342890945582846 kvar=0.10427649324668606 Phases=1 !yearly=com_kw_32198_pu

New Load.load_p1rlv11001_2 conn=wye bus1=p1rlv11001.2 kV=0.12 Vminpu=0.8 Vmaxpu=1.2 model=1 kW=2.1342890945582846 kvar=0.10427649324668606 Phases=1 !yearly=com_kw_32198_pu

New Load.load_p1rlv11073_1 conn=wye bus1=p1rlv11073.1 kV=0.12 Vminpu=0.8 Vmaxpu=1.2 model=1 kW=1.9420707460491782 kvar=0.6705332725794942 Phases=1 !yearly=res_kw_3164_pu

New Load.load_p1rlv11073_2 conn=wye bus1=p1rlv11073.2 kV=0.12 Vminpu=0.8 Vmaxpu=1.2 model=1 kW=1.9420707460491782 kvar=0.6705332725794942 Phases=1 !yearly=res_kw_3164_pu

New Load.load_p1rlv11081_1 conn=wye bus1=p1rlv11081.1 kV=0.12 Vminpu=0.8 Vmaxpu=1.2 model=1 kW=2.872515319591797 kvar=0.7328111219910317 Phases=1 !yearly=res_kw_2666_pu

New Load.load_p1rlv11081_2 conn=wye bus1=p1rlv11081.2 kV=0.12 Vminpu=0.8 Vmaxpu=1.2 model=1 kW=2.872515319591797 kvar=0.7328111219910317 Phases=1 !yearly=res_kw_2666_pu

New Load.load_p1rlv11087_1 conn=wye bus1=p1rlv11087.1 kV=0.12 Vminpu=0.8 Vmaxpu=1.2 model=1 kW=3.299800530427192 kvar=0.3429945143852251 Phases=1 !yearly=com_kw_33365_pu

New Load.load_p1rlv11087_2 conn=wye bus1=p1rlv11087.2 kV=0.12 Vminpu=0.8 Vmaxpu=1.2 model=1 kW=3.299800530427192 kvar=0.3429945143852251 Phases=1 !yearly=com_kw_33365_pu

New Load.load_p1rlv11088_1 conn=wye bus1=p1rlv11088.1 kV=0.12 Vminpu=0.8 Vmaxpu=1.2 model=1 kW=1.6323867069620042 kvar=0.40255171211713736 Phases=1 !yearly=com_kw_17825_pu

New Load.load_p1rlv11088_2 conn=wye bus1=p1rlv11088.2 kV=0.12 Vminpu=0.8 Vmaxpu=1.2 model=1 kW=1.6323867069620042 kvar=0.40255171211713736 Phases=1 !yearly=com_kw_17825_pu

New Load.load_p1rlv11104_1 conn=wye bus1=p1rlv11104.1 kV=0.12 Vminpu=0.8 Vmaxpu=1.2 model=1 kW=1.0599252267318962 kvar=0.3748861224482183 Phases=1 !yearly=res_kw_1902_pu

New Load.load_p1rlv11104_2 conn=wye bus1=p1rlv11104.2 kV=0.12 Vminpu=0.8 Vmaxpu=1.2 model=1 kW=1.0599252267318962 kvar=0.3748861224482183 Phases=1 !yearly=res_kw_1902_pu

New Load.load_p1rlv12509_1 conn=wye bus1=p1rlv12509.1 kV=0.12 Vminpu=0.8 Vmaxpu=1.2 model=1 kW=1.9560799536695528 kvar=0.499516661128582 Phases=1 !yearly=com_kw_28978_pu

New Load.load_p1rlv12509_2 conn=wye bus1=p1rlv12509.2 kV=0.12 Vminpu=0.8 Vmaxpu=1.2 model=1 kW=1.9560799536695528 kvar=0.499516661128582 Phases=1 !yearly=com_kw_28978_pu

New Load.load_p1rlv12513 conn=wye bus1=p1rlv12513.1.2.3 kV=0.48 Vminpu=0.8 Vmaxpu=1.2 model=1 kW=20.748870407428978 kvar=5.091029892468711 Phases=3 !yearly=com_kw_39278_pu

New Load.load_p1rlv12514_1 conn=wye bus1=p1rlv12514.1 kV=0.12 Vminpu=0.8 Vmaxpu=1.2 model=1 kW=3.060939667694842 kvar=0.018922139033990728 Phases=1 !yearly=com_kw_39425_pu

New Load.load_p1rlv12514_2 conn=wye bus1=p1rlv12514.2 kV=0.12 Vminpu=0.8 Vmaxpu=1.2 model=1 kW=3.060939667694842 kvar=0.018922139033990728 Phases=1 !yearly=com_kw_39425_pu

New Load.load_p1rlv12516_1 conn=wye bus1=p1rlv12516.1 kV=0.12 Vminpu=0.8 Vmaxpu=1.2 model=1 kW=2.170918611307458 kvar=0.575413421893771 Phases=1 !yearly=com_kw_31524_pu

New Load.load_p1rlv12516_2 conn=wye bus1=p1rlv12516.2 kV=0.12 Vminpu=0.8 Vmaxpu=1.2 model=1 kW=2.170918611307458 kvar=0.575413421893771 Phases=1 !yearly=com_kw_31524_pu

New Load.load_p1rlv12530_1 conn=wye bus1=p1rlv12530.1 kV=0.12 Vminpu=0.8 Vmaxpu=1.2 model=1 kW=5.960029949501431 kvar=0.322217385022483 Phases=1 !yearly=com_kw_17539_pu

New Load.load_p1rlv12530_2 conn=wye bus1=p1rlv12530.2 kV=0.12 Vminpu=0.8 Vmaxpu=1.2 model=1 kW=5.960029949501431 kvar=0.322217385022483 Phases=1 !yearly=com_kw_17539_pu

New Load.load_p1rlv12532_1 conn=wye bus1=p1rlv12532.1 kV=0.12 Vminpu=0.8 Vmaxpu=1.2 model=1 kW=1.6844632506969115 kvar=0.4071315730781585 Phases=1 !yearly=com_kw_2361_pu

New Load.load_p1rlv12532_2 conn=wye bus1=p1rlv12532.2 kV=0.12 Vminpu=0.8 Vmaxpu=1.2 model=1 kW=1.6844632506969115 kvar=0.4071315730781585 Phases=1 !yearly=com_kw_2361_pu

New Load.load_p1rlv12539_1 conn=wye bus1=p1rlv12539.1 kV=0.12 Vminpu=0.8 Vmaxpu=1.2 model=1 kW=2.6254798786649576 kvar=0.2529249421512141 Phases=1 !yearly=com_kw_16981_pu

New Load.load_p1rlv12539_2 conn=wye bus1=p1rlv12539.2 kV=0.12 Vminpu=0.8 Vmaxpu=1.2 model=1 kW=2.6254798786649576 kvar=0.2529249421512141 Phases=1 !yearly=com_kw_16981_pu

New Load.load_p1rlv12546_1 conn=wye bus1=p1rlv12546.1 kV=0.12 Vminpu=0.8 Vmaxpu=1.2 model=1 kW=6.171921265639173 kvar=0.29621618517422543 Phases=1 !yearly=com_kw_33396_pu

New Load.load_p1rlv12546_2 conn=wye bus1=p1rlv12546.2 kV=0.12 Vminpu=0.8 Vmaxpu=1.2 model=1 kW=6.171921265639173 kvar=0.29621618517422543 Phases=1 !yearly=com_kw_33396_pu

New Load.load_p1rlv12548_1 conn=wye bus1=p1rlv12548.1 kV=0.12 Vminpu=0.8 Vmaxpu=1.2 model=1 kW=3.9800785435301127 kvar=0.2597629929517743 Phases=1 !yearly=com_kw_34105_pu

New Load.load_p1rlv12548_2 conn=wye bus1=p1rlv12548.2 kV=0.12 Vminpu=0.8 Vmaxpu=1.2 model=1 kW=3.9800785435301127 kvar=0.2597629929517743 Phases=1 !yearly=com_kw_34105_pu

New Load.load_p1rlv12833_1 conn=wye bus1=p1rlv12833.1 kV=0.12 Vminpu=0.8 Vmaxpu=1.2 model=1 kW=1.2766983969851713 kvar=0.5028612878254624 Phases=1 !yearly=res_kw_8740_pu

New Load.load_p1rlv12833_2 conn=wye bus1=p1rlv12833.2 kV=0.12 Vminpu=0.8 Vmaxpu=1.2 model=1 kW=1.2766983969851713 kvar=0.5028612878254624 Phases=1 !yearly=res_kw_8740_pu

New Load.load_p1rlv12880_1 conn=wye bus1=p1rlv12880.1 kV=0.12 Vminpu=0.8 Vmaxpu=1.2 model=1 kW=5.569433532353901 kvar=0.07828940019258053 Phases=1 !yearly=res_kw_8031_pu

New Load.load_p1rlv12880_2 conn=wye bus1=p1rlv12880.2 kV=0.12 Vminpu=0.8 Vmaxpu=1.2 model=1 kW=5.569433532353901 kvar=0.07828940019258053 Phases=1 !yearly=res_kw_8031_pu

New Load.load_p1rlv12890_1 conn=wye bus1=p1rlv12890.1 kV=0.12 Vminpu=0.8 Vmaxpu=1.2 model=1 kW=2.591196691973241 kvar=0.24931128849039932 Phases=1 !yearly=com_kw_29427_pu

New Load.load_p1rlv12890_2 conn=wye bus1=p1rlv12890.2 kV=0.12 Vminpu=0.8 Vmaxpu=1.2 model=1 kW=2.591196691973241 kvar=0.24931128849039932 Phases=1 !yearly=com_kw_29427_pu

New Load.load_p1rlv12927_1 conn=wye bus1=p1rlv12927.1 kV=0.12 Vminpu=0.8 Vmaxpu=1.2 model=1 kW=0.7053152094522804 kvar=0.23880751536363234 Phases=1 !yearly=res_kw_1786_pu

New Load.load_p1rlv12927_2 conn=wye bus1=p1rlv12927.2 kV=0.12 Vminpu=0.8 Vmaxpu=1.2 model=1 kW=0.7053152094522804 kvar=0.23880751536363234 Phases=1 !yearly=res_kw_1786_pu

New Load.load_p1rlv12946_1 conn=wye bus1=p1rlv12946.1 kV=0.12 Vminpu=0.8 Vmaxpu=1.2 model=1 kW=2.606959916668558 kvar=0.5550307077474157 Phases=1 !yearly=com_kw_33605_pu

New Load.load_p1rlv12946_2 conn=wye bus1=p1rlv12946.2 kV=0.12 Vminpu=0.8 Vmaxpu=1.2 model=1 kW=2.606959916668558 kvar=0.5550307077474157 Phases=1 !yearly=com_kw_33605_pu

New Load.load_p1rlv12960_1 conn=wye bus1=p1rlv12960.1 kV=0.12 Vminpu=0.8 Vmaxpu=1.2 model=1 kW=1.9834594928986833 kvar=0.6671517036436733 Phases=1 !yearly=res_kw_9491_pu

New Load.load_p1rlv12960_2 conn=wye bus1=p1rlv12960.2 kV=0.12 Vminpu=0.8 Vmaxpu=1.2 model=1 kW=1.9834594928986833 kvar=0.6671517036436733 Phases=1 !yearly=res_kw_9491_pu

New Load.load_p1rlv13204_1 conn=wye bus1=p1rlv13204.1 kV=0.12 Vminpu=0.8 Vmaxpu=1.2 model=1 kW=4.5116290986096415 kvar=1.0913580731253951 Phases=1 !yearly=com_kw_39374_pu

New Load.load_p1rlv13204_2 conn=wye bus1=p1rlv13204.2 kV=0.12 Vminpu=0.8 Vmaxpu=1.2 model=1 kW=4.5116290986096415 kvar=1.0913580731253951 Phases=1 !yearly=com_kw_39374_pu

New Load.load_p1rlv13205_1 conn=wye bus1=p1rlv13205.1 kV=0.12 Vminpu=0.8 Vmaxpu=1.2 model=1 kW=3.498014754859445 kvar=0.018922139033990728 Phases=1 !yearly=com_kw_22751_pu

New Load.load_p1rlv13205_2 conn=wye bus1=p1rlv13205.2 kV=0.12 Vminpu=0.8 Vmaxpu=1.2 model=1 kW=3.498014754859445 kvar=0.018922139033990728 Phases=1 !yearly=com_kw_22751_pu

New Load.load_p1rlv13206 conn=wye bus1=p1rlv13206.1.2.3 kV=0.48 Vminpu=0.8 Vmaxpu=1.2 model=1 kW=27.30130022970153 kvar=4.720561949565347 Phases=3 !yearly=com_kw_16029_pu

New Load.load_p1rlv13207_1 conn=wye bus1=p1rlv13207.1 kV=0.12 Vminpu=0.8 Vmaxpu=1.2 model=1 kW=1.6844632506969115 kvar=0.4071315730781585 Phases=1 !yearly=com_kw_2361_pu

New Load.load_p1rlv13207_2 conn=wye bus1=p1rlv13207.2 kV=0.12 Vminpu=0.8 Vmaxpu=1.2 model=1 kW=1.6844632506969115 kvar=0.4071315730781585 Phases=1 !yearly=com_kw_2361_pu

New Load.load_p1rlv13869_1 conn=wye bus1=p1rlv13869.1 kV=0.12 Vminpu=0.8 Vmaxpu=1.2 model=1 kW=1.839175601618853 kvar=0.4557221316666175 Phases=1 !yearly=com_kw_17204_pu

New Load.load_p1rlv13869_2 conn=wye bus1=p1rlv13869.2 kV=0.12 Vminpu=0.8 Vmaxpu=1.2 model=1 kW=1.839175601618853 kvar=0.4557221316666175 Phases=1 !yearly=com_kw_17204_pu

New Load.load_p1rlv13871_1 conn=wye bus1=p1rlv13871.1 kV=0.12 Vminpu=0.8 Vmaxpu=1.2 model=1 kW=2.9149869461814677 kvar=0.5767582022429075 Phases=1 !yearly=com_kw_32249_pu

New Load.load_p1rlv13871_2 conn=wye bus1=p1rlv13871.2 kV=0.12 Vminpu=0.8 Vmaxpu=1.2 model=1 kW=2.9149869461814677 kvar=0.5767582022429075 Phases=1 !yearly=com_kw_32249_pu

New Load.load_p1rlv13872_1 conn=wye bus1=p1rlv13872.1 kV=0.12 Vminpu=0.8 Vmaxpu=1.2 model=1 kW=2.1343287185333217 kvar=0.10429894918818222 Phases=1 !yearly=com_kw_1789_pu

New Load.load_p1rlv13872_2 conn=wye bus1=p1rlv13872.2 kV=0.12 Vminpu=0.8 Vmaxpu=1.2 model=1 kW=2.1343287185333217 kvar=0.10429894918818222 Phases=1 !yearly=com_kw_1789_pu

New Load.load_p1rlv13878_1 conn=wye bus1=p1rlv13878.1 kV=0.12 Vminpu=0.8 Vmaxpu=1.2 model=1 kW=2.5668869117989415 kvar=0.5951466628222033 Phases=1 !yearly=com_kw_41421_pu

New Load.load_p1rlv13878_2 conn=wye bus1=p1rlv13878.2 kV=0.12 Vminpu=0.8 Vmaxpu=1.2 model=1 kW=2.5668869117989415 kvar=0.5951466628222033 Phases=1 !yearly=com_kw_41421_pu

New Load.load_p1rlv13892_1 conn=wye bus1=p1rlv13892.1 kV=0.12 Vminpu=0.8 Vmaxpu=1.2 model=1 kW=3.772462172331776 kvar=1.0755387210843397 Phases=1 !yearly=com_kw_29082_pu

New Load.load_p1rlv13892_2 conn=wye bus1=p1rlv13892.2 kV=0.12 Vminpu=0.8 Vmaxpu=1.2 model=1 kW=3.772462172331776 kvar=1.0755387210843397 Phases=1 !yearly=com_kw_29082_pu

New Load.load_p1rlv13899_1 conn=wye bus1=p1rlv13899.1 kV=0.12 Vminpu=0.8 Vmaxpu=1.2 model=1 kW=1.4699462180170992 kvar=0.3815978523472859 Phases=1 !yearly=com_kw_1701_pu

New Load.load_p1rlv13899_2 conn=wye bus1=p1rlv13899.2 kV=0.12 Vminpu=0.8 Vmaxpu=1.2 model=1 kW=1.4699462180170992 kvar=0.3815978523472859 Phases=1 !yearly=com_kw_1701_pu

New Load.load_p1rlv13905_1 conn=wye bus1=p1rlv13905.1 kV=0.12 Vminpu=0.8 Vmaxpu=1.2 model=1 kW=6.49638086103876 kvar=1.3007189970473756 Phases=1 !yearly=com_kw_2538_pu

New Load.load_p1rlv13905_2 conn=wye bus1=p1rlv13905.2 kV=0.12 Vminpu=0.8 Vmaxpu=1.2 model=1 kW=6.49638086103876 kvar=1.3007189970473756 Phases=1 !yearly=com_kw_2538_pu

New Load.load_p1rlv13906_1 conn=wye bus1=p1rlv13906.1 kV=0.12 Vminpu=0.8 Vmaxpu=1.2 model=1 kW=2.032692214158918 kvar=0.5109700530012344 Phases=1 !yearly=com_kw_2581_pu

New Load.load_p1rlv13906_2 conn=wye bus1=p1rlv13906.2 kV=0.12 Vminpu=0.8 Vmaxpu=1.2 model=1 kW=2.032692214158918 kvar=0.5109700530012344 Phases=1 !yearly=com_kw_2581_pu

New Load.load_p1rlv13912_1 conn=wye bus1=p1rlv13912.1 kV=0.12 Vminpu=0.8 Vmaxpu=1.2 model=1 kW=2.340123280881575 kvar=0.28306337277173615 Phases=1 !yearly=com_kw_33792_pu

New Load.load_p1rlv13912_2 conn=wye bus1=p1rlv13912.2 kV=0.12 Vminpu=0.8 Vmaxpu=1.2 model=1 kW=2.340123280881575 kvar=0.28306337277173615 Phases=1 !yearly=com_kw_33792_pu

New Load.load_p1rlv13919_1 conn=wye bus1=p1rlv13919.1 kV=0.12 Vminpu=0.8 Vmaxpu=1.2 model=1 kW=2.506777523971763 kvar=0.6728964006005869 Phases=1 !yearly=com_kw_21014_pu

New Load.load_p1rlv13919_2 conn=wye bus1=p1rlv13919.2 kV=0.12 Vminpu=0.8 Vmaxpu=1.2 model=1 kW=2.506777523971763 kvar=0.6728964006005869 Phases=1 !yearly=com_kw_21014_pu

New Load.load_p1rlv13920_1 conn=wye bus1=p1rlv13920.1 kV=0.12 Vminpu=0.8 Vmaxpu=1.2 model=1 kW=3.299800530427192 kvar=0.3429945143852251 Phases=1 !yearly=com_kw_33365_pu

New Load.load_p1rlv13920_2 conn=wye bus1=p1rlv13920.2 kV=0.12 Vminpu=0.8 Vmaxpu=1.2 model=1 kW=3.299800530427192 kvar=0.3429945143852251 Phases=1 !yearly=com_kw_33365_pu

New Load.load_p1rlv13925_1 conn=wye bus1=p1rlv13925.1 kV=0.12 Vminpu=0.8 Vmaxpu=1.2 model=1 kW=2.839033632547656 kvar=0.36892018645953045 Phases=1 !yearly=com_kw_2479_pu

New Load.load_p1rlv13925_2 conn=wye bus1=p1rlv13925.2 kV=0.12 Vminpu=0.8 Vmaxpu=1.2 model=1 kW=2.839033632547656 kvar=0.36892018645953045 Phases=1 !yearly=com_kw_2479_pu

New Load.load_p1rlv14676_1 conn=wye bus1=p1rlv14676.1 kV=0.12 Vminpu=0.8 Vmaxpu=1.2 model=1 kW=2.9559171691321495 kvar=0.018922139033990728 Phases=1 !yearly=com_kw_19739_pu

New Load.load_p1rlv14676_2 conn=wye bus1=p1rlv14676.2 kV=0.12 Vminpu=0.8 Vmaxpu=1.2 model=1 kW=2.9559171691321495 kvar=0.018922139033990728 Phases=1 !yearly=com_kw_19739_pu

New Load.load_p1rlv14763_1 conn=wye bus1=p1rlv14763.1 kV=0.12 Vminpu=0.8 Vmaxpu=1.2 model=1 kW=2.606959916668558 kvar=0.5550307077474157 Phases=1 !yearly=com_kw_33605_pu

New Load.load_p1rlv14763_2 conn=wye bus1=p1rlv14763.2 kV=0.12 Vminpu=0.8 Vmaxpu=1.2 model=1 kW=2.606959916668558 kvar=0.5550307077474157 Phases=1 !yearly=com_kw_33605_pu

New Load.load_p1rlv14797_1 conn=wye bus1=p1rlv14797.1 kV=0.12 Vminpu=0.8 Vmaxpu=1.2 model=1 kW=5.255322802252428 kvar=0.05676641710197242 Phases=1 !yearly=com_kw_17272_pu

New Load.load_p1rlv14797_2 conn=wye bus1=p1rlv14797.2 kV=0.12 Vminpu=0.8 Vmaxpu=1.2 model=1 kW=5.255322802252428 kvar=0.05676641710197242 Phases=1 !yearly=com_kw_17272_pu

New Load.load_p1rlv14798_1 conn=wye bus1=p1rlv14798.1 kV=0.12 Vminpu=0.8 Vmaxpu=1.2 model=1 kW=6.171921265639173 kvar=0.29621618517422543 Phases=1 !yearly=com_kw_33396_pu

New Load.load_p1rlv14798_2 conn=wye bus1=p1rlv14798.2 kV=0.12 Vminpu=0.8 Vmaxpu=1.2 model=1 kW=6.171921265639173 kvar=0.29621618517422543 Phases=1 !yearly=com_kw_33396_pu

New Load.load_p1rlv14815_1 conn=wye bus1=p1rlv14815.1 kV=0.12 Vminpu=0.8 Vmaxpu=1.2 model=1 kW=2.4437884187508536 kvar=0.6647073432497462 Phases=1 !yearly=com_kw_29508_pu

New Load.load_p1rlv14815_2 conn=wye bus1=p1rlv14815.2 kV=0.12 Vminpu=0.8 Vmaxpu=1.2 model=1 kW=2.4437884187508536 kvar=0.6647073432497462 Phases=1 !yearly=com_kw_29508_pu

New Load.load_p1rlv15270_1 conn=wye bus1=p1rlv15270.1 kV=0.12 Vminpu=0.8 Vmaxpu=1.2 model=1 kW=3.623527459970336 kvar=0.9919091624471303 Phases=1 !yearly=res_kw_9907_pu

New Load.load_p1rlv15270_2 conn=wye bus1=p1rlv15270.2 kV=0.12 Vminpu=0.8 Vmaxpu=1.2 model=1 kW=3.623527459970336 kvar=0.9919091624471303 Phases=1 !yearly=res_kw_9907_pu

New Load.load_p1rlv15271_1 conn=wye bus1=p1rlv15271.1 kV=0.12 Vminpu=0.8 Vmaxpu=1.2 model=1 kW=4.678414801724234 kvar=1.105145904548135 Phases=1 !yearly=com_kw_2147_pu

New Load.load_p1rlv15271_2 conn=wye bus1=p1rlv15271.2 kV=0.12 Vminpu=0.8 Vmaxpu=1.2 model=1 kW=4.678414801724234 kvar=1.105145904548135 Phases=1 !yearly=com_kw_2147_pu

New Load.load_p1rlv16321_1 conn=wye bus1=p1rlv16321.1 kV=0.12 Vminpu=0.8 Vmaxpu=1.2 model=1 kW=2.455621512954275 kvar=0.7274486204941961 Phases=1 !yearly=com_kw_1416_pu

New Load.load_p1rlv16321_2 conn=wye bus1=p1rlv16321.2 kV=0.12 Vminpu=0.8 Vmaxpu=1.2 model=1 kW=2.455621512954275 kvar=0.7274486204941961 Phases=1 !yearly=com_kw_1416_pu

New Load.load_p1rlv16338_1 conn=wye bus1=p1rlv16338.1 kV=0.12 Vminpu=0.8 Vmaxpu=1.2 model=1 kW=2.6009666033769583 kvar=0.30487867399122176 Phases=1 !yearly=com_kw_33842_pu

New Load.load_p1rlv16338_2 conn=wye bus1=p1rlv16338.2 kV=0.12 Vminpu=0.8 Vmaxpu=1.2 model=1 kW=2.6009666033769583 kvar=0.30487867399122176 Phases=1 !yearly=com_kw_33842_pu

New Load.load_p1rlv16353_1 conn=wye bus1=p1rlv16353.1 kV=0.12 Vminpu=0.8 Vmaxpu=1.2 model=1 kW=2.506777523971763 kvar=0.6728964006005869 Phases=1 !yearly=com_kw_21014_pu

New Load.load_p1rlv16353_2 conn=wye bus1=p1rlv16353.2 kV=0.12 Vminpu=0.8 Vmaxpu=1.2 model=1 kW=2.506777523971763 kvar=0.6728964006005869 Phases=1 !yearly=com_kw_21014_pu

New Load.load_p1rlv16367_1 conn=wye bus1=p1rlv16367.1 kV=0.12 Vminpu=0.8 Vmaxpu=1.2 model=1 kW=2.839033632547656 kvar=0.36892018645953045 Phases=1 !yearly=com_kw_2479_pu

New Load.load_p1rlv16367_2 conn=wye bus1=p1rlv16367.2 kV=0.12 Vminpu=0.8 Vmaxpu=1.2 model=1 kW=2.839033632547656 kvar=0.36892018645953045 Phases=1 !yearly=com_kw_2479_pu

New Load.load_p1rlv16374_1 conn=wye bus1=p1rlv16374.1 kV=0.12 Vminpu=0.8 Vmaxpu=1.2 model=1 kW=3.443583112785006 kvar=0.2576306570382033 Phases=1 !yearly=com_kw_32163_pu

New Load.load_p1rlv16374_2 conn=wye bus1=p1rlv16374.2 kV=0.12 Vminpu=0.8 Vmaxpu=1.2 model=1 kW=3.443583112785006 kvar=0.2576306570382033 Phases=1 !yearly=com_kw_32163_pu

New Load.load_p1rlv17390_1 conn=wye bus1=p1rlv17390.1 kV=0.12 Vminpu=0.8 Vmaxpu=1.2 model=1 kW=2.31125911334339 kvar=0.6469035988597648 Phases=1 !yearly=com_kw_33186_pu

New Load.load_p1rlv17390_2 conn=wye bus1=p1rlv17390.2 kV=0.12 Vminpu=0.8 Vmaxpu=1.2 model=1 kW=2.31125911334339 kvar=0.6469035988597648 Phases=1 !yearly=com_kw_33186_pu

New Load.load_p1rlv17479_1 conn=wye bus1=p1rlv17479.1 kV=0.12 Vminpu=0.8 Vmaxpu=1.2 model=1 kW=0.5348201699646123 kvar=0.21241824123648728 Phases=1 !yearly=res_kw_11875_pu

New Load.load_p1rlv17479_2 conn=wye bus1=p1rlv17479.2 kV=0.12 Vminpu=0.8 Vmaxpu=1.2 model=1 kW=0.5348201699646123 kvar=0.21241824123648728 Phases=1 !yearly=res_kw_11875_pu

New Load.load_p1rlv17484_1 conn=wye bus1=p1rlv17484.1 kV=0.12 Vminpu=0.8 Vmaxpu=1.2 model=1 kW=1.9091540745929014 kvar=0.5092410528673206 Phases=1 !yearly=com_kw_29637_pu

New Load.load_p1rlv17484_2 conn=wye bus1=p1rlv17484.2 kV=0.12 Vminpu=0.8 Vmaxpu=1.2 model=1 kW=1.9091540745929014 kvar=0.5092410528673206 Phases=1 !yearly=com_kw_29637_pu

New Load.load_p1rlv17510_1 conn=wye bus1=p1rlv17510.1 kV=0.12 Vminpu=0.8 Vmaxpu=1.2 model=1 kW=2.290544136396002 kvar=0.6122151063053857 Phases=1 !yearly=com_kw_1777_pu

New Load.load_p1rlv17510_2 conn=wye bus1=p1rlv17510.2 kV=0.12 Vminpu=0.8 Vmaxpu=1.2 model=1 kW=2.290544136396002 kvar=0.6122151063053857 Phases=1 !yearly=com_kw_1777_pu

New Load.load_p1rlv17511_1 conn=wye bus1=p1rlv17511.1 kV=0.12 Vminpu=0.8 Vmaxpu=1.2 model=1 kW=2.468202499819808 kvar=0.6441055098757433 Phases=1 !yearly=com_kw_29656_pu

New Load.load_p1rlv17511_2 conn=wye bus1=p1rlv17511.2 kV=0.12 Vminpu=0.8 Vmaxpu=1.2 model=1 kW=2.468202499819808 kvar=0.6441055098757433 Phases=1 !yearly=com_kw_29656_pu

New Load.load_p1rlv17513_1 conn=wye bus1=p1rlv17513.1 kV=0.12 Vminpu=0.8 Vmaxpu=1.2 model=1 kW=2.2197968815902716 kvar=0.5722717828994575 Phases=1 !yearly=com_kw_1541_pu

New Load.load_p1rlv17513_2 conn=wye bus1=p1rlv17513.2 kV=0.12 Vminpu=0.8 Vmaxpu=1.2 model=1 kW=2.2197968815902716 kvar=0.5722717828994575 Phases=1 !yearly=com_kw_1541_pu

New Load.load_p1rlv17514_1 conn=wye bus1=p1rlv17514.1 kV=0.12 Vminpu=0.8 Vmaxpu=1.2 model=1 kW=2.5202593896091736 kvar=0.6973445820856009 Phases=1 !yearly=com_kw_1115_pu

New Load.load_p1rlv17514_2 conn=wye bus1=p1rlv17514.2 kV=0.12 Vminpu=0.8 Vmaxpu=1.2 model=1 kW=2.5202593896091736 kvar=0.6973445820856009 Phases=1 !yearly=com_kw_1115_pu

New Load.load_p1rlv17517_1 conn=wye bus1=p1rlv17517.1 kV=0.12 Vminpu=0.8 Vmaxpu=1.2 model=1 kW=6.171921265639173 kvar=0.29621618517422543 Phases=1 !yearly=com_kw_33396_pu

New Load.load_p1rlv17517_2 conn=wye bus1=p1rlv17517.2 kV=0.12 Vminpu=0.8 Vmaxpu=1.2 model=1 kW=6.171921265639173 kvar=0.29621618517422543 Phases=1 !yearly=com_kw_33396_pu

New Load.load_p1rlv19145_1 conn=wye bus1=p1rlv19145.1 kV=0.12 Vminpu=0.8 Vmaxpu=1.2 model=1 kW=4.3405081307205 kvar=0.7563204145187363 Phases=1 !yearly=res_kw_13824_pu

New Load.load_p1rlv19145_2 conn=wye bus1=p1rlv19145.2 kV=0.12 Vminpu=0.8 Vmaxpu=1.2 model=1 kW=4.3405081307205 kvar=0.7563204145187363 Phases=1 !yearly=res_kw_13824_pu

New Load.load_p1rlv19148_1 conn=wye bus1=p1rlv19148.1 kV=0.12 Vminpu=0.8 Vmaxpu=1.2 model=1 kW=1.3786182488338723 kvar=0.5359363058124609 Phases=1 !yearly=res_kw_277_pu

New Load.load_p1rlv19148_2 conn=wye bus1=p1rlv19148.2 kV=0.12 Vminpu=0.8 Vmaxpu=1.2 model=1 kW=1.3786182488338723 kvar=0.5359363058124609 Phases=1 !yearly=res_kw_277_pu

New Load.load_p1rlv19150_1 conn=wye bus1=p1rlv19150.1 kV=0.12 Vminpu=0.8 Vmaxpu=1.2 model=1 kW=4.037961707989467 kvar=0.3691190849967326 Phases=1 !yearly=res_kw_8669_pu

New Load.load_p1rlv19150_2 conn=wye bus1=p1rlv19150.2 kV=0.12 Vminpu=0.8 Vmaxpu=1.2 model=1 kW=4.037961707989467 kvar=0.3691190849967326 Phases=1 !yearly=res_kw_8669_pu

New Load.load_p1rlv19152_1 conn=wye bus1=p1rlv19152.1 kV=0.12 Vminpu=0.8 Vmaxpu=1.2 model=1 kW=4.774034588817963 kvar=1.005441618856208 Phases=1 !yearly=res_kw_9022_pu

New Load.load_p1rlv19152_2 conn=wye bus1=p1rlv19152.2 kV=0.12 Vminpu=0.8 Vmaxpu=1.2 model=1 kW=4.774034588817963 kvar=1.005441618856208 Phases=1 !yearly=res_kw_9022_pu

New Load.load_p1rlv19153_1 conn=wye bus1=p1rlv19153.1 kV=0.12 Vminpu=0.8 Vmaxpu=1.2 model=1 kW=0.7812856221781264 kvar=0.29493523962554685 Phases=1 !yearly=res_kw_11820_pu

New Load.load_p1rlv19153_2 conn=wye bus1=p1rlv19153.2 kV=0.12 Vminpu=0.8 Vmaxpu=1.2 model=1 kW=0.7812856221781264 kvar=0.29493523962554685 Phases=1 !yearly=res_kw_11820_pu

New Load.load_p1rlv19154_1 conn=wye bus1=p1rlv19154.1 kV=0.12 Vminpu=0.8 Vmaxpu=1.2 model=1 kW=2.8145950466373417 kvar=0.09093602970127403 Phases=1 !yearly=res_kw_910_pu

New Load.load_p1rlv19154_2 conn=wye bus1=p1rlv19154.2 kV=0.12 Vminpu=0.8 Vmaxpu=1.2 model=1 kW=2.8145950466373417 kvar=0.09093602970127403 Phases=1 !yearly=res_kw_910_pu

New Load.load_p1rlv19155_1 conn=wye bus1=p1rlv19155.1 kV=0.12 Vminpu=0.8 Vmaxpu=1.2 model=1 kW=1.7771517670040275 kvar=0.8838563298920215 Phases=1 !yearly=res_kw_3492_pu

New Load.load_p1rlv19155_2 conn=wye bus1=p1rlv19155.2 kV=0.12 Vminpu=0.8 Vmaxpu=1.2 model=1 kW=1.7771517670040275 kvar=0.8838563298920215 Phases=1 !yearly=res_kw_3492_pu

New Load.load_p1rlv19158_1 conn=wye bus1=p1rlv19158.1 kV=0.12 Vminpu=0.8 Vmaxpu=1.2 model=1 kW=1.794005533851084 kvar=0.6855099409421886 Phases=1 !yearly=res_kw_8268_pu

New Load.load_p1rlv19158_2 conn=wye bus1=p1rlv19158.2 kV=0.12 Vminpu=0.8 Vmaxpu=1.2 model=1 kW=1.794005533851084 kvar=0.6855099409421886 Phases=1 !yearly=res_kw_8268_pu

New Load.load_p1rlv19159_1 conn=wye bus1=p1rlv19159.1 kV=0.12 Vminpu=0.8 Vmaxpu=1.2 model=1 kW=1.3054484642249038 kvar=0.5192802023539763 Phases=1 !yearly=res_kw_11113_pu

New Load.load_p1rlv19159_2 conn=wye bus1=p1rlv19159.2 kV=0.12 Vminpu=0.8 Vmaxpu=1.2 model=1 kW=1.3054484642249038 kvar=0.5192802023539763 Phases=1 !yearly=res_kw_11113_pu

New Load.load_p1rlv19162_1 conn=wye bus1=p1rlv19162.1 kV=0.12 Vminpu=0.8 Vmaxpu=1.2 model=1 kW=2.445994317964332 kvar=0.8597073331859654 Phases=1 !yearly=res_kw_13148_pu

New Load.load_p1rlv19162_2 conn=wye bus1=p1rlv19162.2 kV=0.12 Vminpu=0.8 Vmaxpu=1.2 model=1 kW=2.445994317964332 kvar=0.8597073331859654 Phases=1 !yearly=res_kw_13148_pu

New Load.load_p1rlv19167_1 conn=wye bus1=p1rlv19167.1 kV=0.12 Vminpu=0.8 Vmaxpu=1.2 model=1 kW=1.5290895920961123 kvar=0.36247808422876804 Phases=1 !yearly=com_kw_32053_pu

New Load.load_p1rlv19167_2 conn=wye bus1=p1rlv19167.2 kV=0.12 Vminpu=0.8 Vmaxpu=1.2 model=1 kW=1.5290895920961123 kvar=0.36247808422876804 Phases=1 !yearly=com_kw_32053_pu

New Load.load_p1rlv19170_1 conn=wye bus1=p1rlv19170.1 kV=0.12 Vminpu=0.8 Vmaxpu=1.2 model=1 kW=1.839175601618853 kvar=0.4557221316666175 Phases=1 !yearly=com_kw_17204_pu

New Load.load_p1rlv19170_2 conn=wye bus1=p1rlv19170.2 kV=0.12 Vminpu=0.8 Vmaxpu=1.2 model=1 kW=1.839175601618853 kvar=0.4557221316666175 Phases=1 !yearly=com_kw_17204_pu

New Load.load_p1rlv19175_1 conn=wye bus1=p1rlv19175.1 kV=0.12 Vminpu=0.8 Vmaxpu=1.2 model=1 kW=2.1929222716193686 kvar=0.6234515659906771 Phases=1 !yearly=com_kw_17396_pu

New Load.load_p1rlv19175_2 conn=wye bus1=p1rlv19175.2 kV=0.12 Vminpu=0.8 Vmaxpu=1.2 model=1 kW=2.1929222716193686 kvar=0.6234515659906771 Phases=1 !yearly=com_kw_17396_pu

New Load.load_p1rlv19177_1 conn=wye bus1=p1rlv19177.1 kV=0.12 Vminpu=0.8 Vmaxpu=1.2 model=1 kW=4.5208042577890035 kvar=0.41759446885548385 Phases=1 !yearly=com_kw_2052_pu

New Load.load_p1rlv19177_2 conn=wye bus1=p1rlv19177.2 kV=0.12 Vminpu=0.8 Vmaxpu=1.2 model=1 kW=4.5208042577890035 kvar=0.41759446885548385 Phases=1 !yearly=com_kw_2052_pu

New Load.load_p1rlv19178_1 conn=wye bus1=p1rlv19178.1 kV=0.12 Vminpu=0.8 Vmaxpu=1.2 model=1 kW=3.1426015471760884 kvar=0.5928311844731246 Phases=1 !yearly=res_kw_4990_pu

New Load.load_p1rlv19178_2 conn=wye bus1=p1rlv19178.2 kV=0.12 Vminpu=0.8 Vmaxpu=1.2 model=1 kW=3.1426015471760884 kvar=0.5928311844731246 Phases=1 !yearly=res_kw_4990_pu

New Load.load_p1rlv19182_1 conn=wye bus1=p1rlv19182.1 kV=0.12 Vminpu=0.8 Vmaxpu=1.2 model=1 kW=3.418311566377345 kvar=0.6596673444150283 Phases=1 !yearly=res_kw_13026_pu

New Load.load_p1rlv19182_2 conn=wye bus1=p1rlv19182.2 kV=0.12 Vminpu=0.8 Vmaxpu=1.2 model=1 kW=3.418311566377345 kvar=0.6596673444150283 Phases=1 !yearly=res_kw_13026_pu

New Load.load_p1rlv19185_1 conn=wye bus1=p1rlv19185.1 kV=0.12 Vminpu=0.8 Vmaxpu=1.2 model=1 kW=2.2489699911360574 kvar=0.6200743429841856 Phases=1 !yearly=com_kw_2255_pu

New Load.load_p1rlv19185_2 conn=wye bus1=p1rlv19185.2 kV=0.12 Vminpu=0.8 Vmaxpu=1.2 model=1 kW=2.2489699911360574 kvar=0.6200743429841856 Phases=1 !yearly=com_kw_2255_pu

New Load.load_p1rlv19186_1 conn=wye bus1=p1rlv19186.1 kV=0.12 Vminpu=0.8 Vmaxpu=1.2 model=1 kW=2.3792157437474204 kvar=0.7512505382175723 Phases=1 !yearly=com_kw_2251_pu

New Load.load_p1rlv19186_2 conn=wye bus1=p1rlv19186.2 kV=0.12 Vminpu=0.8 Vmaxpu=1.2 model=1 kW=2.3792157437474204 kvar=0.7512505382175723 Phases=1 !yearly=com_kw_2251_pu

New Load.load_p1rlv19187_1 conn=wye bus1=p1rlv19187.1 kV=0.12 Vminpu=0.8 Vmaxpu=1.2 model=1 kW=2.1698158732703443 kvar=0.8490689598373361 Phases=1 !yearly=res_kw_8743_pu

New Load.load_p1rlv19187_2 conn=wye bus1=p1rlv19187.2 kV=0.12 Vminpu=0.8 Vmaxpu=1.2 model=1 kW=2.1698158732703443 kvar=0.8490689598373361 Phases=1 !yearly=res_kw_8743_pu

New Load.load_p1rlv19192_1 conn=wye bus1=p1rlv19192.1 kV=0.12 Vminpu=0.8 Vmaxpu=1.2 model=1 kW=5.847447811776605 kvar=0.9157626905937845 Phases=1 !yearly=com_kw_41405_pu

New Load.load_p1rlv19192_2 conn=wye bus1=p1rlv19192.2 kV=0.12 Vminpu=0.8 Vmaxpu=1.2 model=1 kW=5.847447811776605 kvar=0.9157626905937845 Phases=1 !yearly=com_kw_41405_pu

New Load.load_p1rlv19195_1 conn=wye bus1=p1rlv19195.1 kV=0.12 Vminpu=0.8 Vmaxpu=1.2 model=1 kW=2.4146763306383106 kvar=0.6793582693447386 Phases=1 !yearly=com_kw_39448_pu

New Load.load_p1rlv19195_2 conn=wye bus1=p1rlv19195.2 kV=0.12 Vminpu=0.8 Vmaxpu=1.2 model=1 kW=2.4146763306383106 kvar=0.6793582693447386 Phases=1 !yearly=com_kw_39448_pu

New Load.load_p1rlv19196_1 conn=wye bus1=p1rlv19196.1 kV=0.12 Vminpu=0.8 Vmaxpu=1.2 model=1 kW=2.3415535522892696 kvar=0.7028882119915548 Phases=1 !yearly=com_kw_16586_pu

New Load.load_p1rlv19196_2 conn=wye bus1=p1rlv19196.2 kV=0.12 Vminpu=0.8 Vmaxpu=1.2 model=1 kW=2.3415535522892696 kvar=0.7028882119915548 Phases=1 !yearly=com_kw_16586_pu

New Load.load_p1rlv19832_1 conn=wye bus1=p1rlv19832.1 kV=0.12 Vminpu=0.8 Vmaxpu=1.2 model=1 kW=4.338024948143216 kvar=0.9096814401074484 Phases=1 !yearly=res_kw_3774_pu
